
     RDKit          3D

 40 42  0  0  0  0  0  0  0  0999 V2000
  -15.5660  -21.5370    0.0800 C   0  0  0  0  0  0  0  0  0  0  0  0
  -15.9240  -20.2210   -0.6090 C   0  0  0  0  0  0  0  0  0  0  0  0
  -15.7760  -20.3260   -2.1330 C   0  0  0  0  0  0  0  0  0  0  0  0
  -16.0780  -19.0340   -2.7530 N   0  0  0  0  0  0  0  0  0  0  0  0
  -16.2810  -19.0580   -4.1810 C   0  0  0  0  0  0  0  0  0  0  0  0
  -15.0380  -19.3500   -5.0540 C   0  0  0  0  0  0  0  0  0  0  0  0
  -13.9520  -19.6390   -4.5630 O   0  0  0  0  0  0  0  0  0  0  0  0
  -15.2350  -19.2630   -6.4150 N   0  0  0  0  0  0  0  0  0  0  0  0
  -16.5110  -18.8640   -7.0560 C   0  0  0  0  0  0  0  0  0  0  0  0
  -16.3070  -19.1560   -8.5610 C   0  0  0  0  0  0  0  0  0  0  0  0
  -14.8090  -19.3110   -8.6830 C   0  0  0  0  0  0  0  0  0  0  0  0
  -14.0160  -19.3990   -9.8200 C   0  0  0  0  0  0  0  0  0  0  0  0
  -12.6370  -19.5910   -9.6780 C   0  0  0  0  0  0  0  0  0  0  0  0
  -12.0760  -19.6990   -8.4040 C   0  0  0  0  0  0  0  0  0  0  0  0
  -12.8600  -19.6130   -7.2480 C   0  0  0  0  0  0  0  0  0  0  0  0
  -14.2330  -19.4100   -7.4090 C   0  0  0  0  0  0  0  0  0  0  0  0
  -15.2110  -17.9630   -2.2570 C   0  0  0  0  0  0  0  0  0  0  0  0
  -15.3620  -17.8630   -0.7400 C   0  0  0  0  0  0  0  0  0  0  0  0
  -15.0320  -19.1560   -0.1390 N   0  0  0  0  0  0  0  0  0  0  0  0
  -16.2220  -22.3480   -0.2580 H   0  0  0  0  0  0  0  0  0  0  0  0
  -15.6760  -21.4530    1.1680 H   0  0  0  0  0  0  0  0  0  0  0  0
  -14.5280  -21.8130   -0.1350 H   0  0  0  0  0  0  0  0  0  0  0  0
  -16.9860  -19.9800   -0.4010 H   0  0  0  0  0  0  0  0  0  0  0  0
  -16.4920  -21.0660   -2.5140 H   0  0  0  0  0  0  0  0  0  0  0  0
  -14.7610  -20.6780   -2.3730 H   0  0  0  0  0  0  0  0  0  0  0  0
  -16.7030  -18.0900   -4.4900 H   0  0  0  0  0  0  0  0  0  0  0  0
  -17.0490  -19.8110   -4.4100 H   0  0  0  0  0  0  0  0  0  0  0  0
  -16.6950  -17.7950   -6.8850 H   0  0  0  0  0  0  0  0  0  0  0  0
  -17.3490  -19.4220   -6.6330 H   0  0  0  0  0  0  0  0  0  0  0  0
  -16.7120  -18.3520   -9.1840 H   0  0  0  0  0  0  0  0  0  0  0  0
  -16.8210  -20.0810   -8.8550 H   0  0  0  0  0  0  0  0  0  0  0  0
  -14.4630  -19.3200  -10.8090 H   0  0  0  0  0  0  0  0  0  0  0  0
  -12.0050  -19.6570  -10.5590 H   0  0  0  0  0  0  0  0  0  0  0  0
  -11.0050  -19.8510   -8.2990 H   0  0  0  0  0  0  0  0  0  0  0  0
  -12.4310  -19.6970   -6.2610 H   0  0  0  0  0  0  0  0  0  0  0  0
  -15.5290  -17.0190   -2.7190 H   0  0  0  0  0  0  0  0  0  0  0  0
  -14.1540  -18.1320   -2.5110 H   0  0  0  0  0  0  0  0  0  0  0  0
  -16.3940  -17.5340   -0.5090 H   0  0  0  0  0  0  0  0  0  0  0  0
  -14.6700  -17.1060   -0.3510 H   0  0  0  0  0  0  0  0  0  0  0  0
  -15.0900  -19.0890    0.8760 H   0  0  0  0  0  0  0  0  0  0  0  0
  1  2  1  0
  2  3  1  0
  2 19  1  0
  3  4  1  0
  4  5  1  0
  4 17  1  0
  5  6  1  0
  6  7  2  0
  6  8  1  0
  8  9  1  0
  8 16  1  0
  9 10  1  0
 10 11  1  0
 11 12  1  0
 11 16  2  0
 12 13  2  0
 13 14  1  0
 14 15  2  0
 15 16  1  0
 17 18  1  0
 18 19  1  0
  1 20  1  0
  1 21  1  0
  1 22  1  0
  2 23  1  0
  3 24  1  0
  3 25  1  0
  5 26  1  0
  5 27  1  0
  9 28  1  0
  9 29  1  0
 10 30  1  0
 10 31  1  0
 12 32  1  0
 13 33  1  0
 14 34  1  0
 15 35  1  0
 17 36  1  0
 17 37  1  0
 18 38  1  0
 18 39  1  0
 19 40  1  0
M  END
